[General]
network = Network
sim-time-limit = 200s

Network.gen.generationInterval=exponential(0.001)
Network.queue.serviceTime=exponential(0.001)
