[General]
network = Network
sim-time-limit = 200s

Network.nodeTx.gen.generationInterval = exponential(0.1)
Network.nodeTx.gen.packetByteSize = 12500
Network.queue1.serviceTime=0
Network.queue2.serviceTime=0
Network.queue1.bufferSize=200
Network.queue2.bufferSize=200
Network.nodeRx.queue.bufferSize = 200
Network.nodeTx.queue.bufferSize = 20000