[General]
network = Network
sim-time-limit = 200s

Network.nodeTx.gen.generationInterval = exponential(0.001)
Network.queue.serviceTime=exponential(0.001)
Network.nodeTx.gen.packetByteSize = 12500
Network.queue1.bufferSize = 200
Network.queue2.bufferSize = 200
Network.queue2.serviceTime = exponential(1)
Network.queue1.serviceTime = exponential(1)
Network.nodeRx.queue.bufferSize = 200
Network.nodeTx.queue.bufferSize = 2000000